
#======================================================================
# CRYSTAL DATA
#----------------------------------------------------------------------
data_VESTA_phase_1

_chemical_name_common                  'POSCAR file written by OVITO Basic 3.1'
_cell_length_a                         5.091902
_cell_length_b                         8.819433
_cell_length_c                         13.774298
_cell_angle_alpha                      90.000000
_cell_angle_beta                       90.000000
_cell_angle_gamma                      90.000000
_cell_volume                           618.571860
_space_group_name_H-M_alt              'P 1'
_space_group_IT_number                 1

loop_
_space_group_symop_operation_xyz
   'x, y, z'

loop_
   _atom_site_label
   _atom_site_occupancy
   _atom_site_fract_x
   _atom_site_fract_y
   _atom_site_fract_z
   _atom_site_adp_type
   _atom_site_U_iso_or_equiv
   _atom_site_type_symbol
   Fe1        1.0    -0.000000     0.333333     0.521490    Uiso  ? Fe
   Fe2        1.0    -0.500000     0.833333     0.521490    Uiso  ? Fe
   Fe3        1.0     0.000000     0.000000     0.645177    Uiso  ? Fe
   Fe4        1.0    -0.500000     0.500000     0.645177    Uiso  ? Fe
   Fe5        1.0    -0.000000     0.333333     0.811844    Uiso  ? Fe
   Fe6        1.0    -0.500000     0.833333     0.811844    Uiso  ? Fe
   Fe7        1.0     0.500000     0.166667     0.688156    Uiso  ? Fe
   Fe8        1.0    -0.000000     0.666667     0.688156    Uiso  ? Fe
   Fe9        1.0     0.000000     0.000000     0.854823    Uiso  ? Fe
   Fe10       1.0    -0.500000     0.500000     0.854823    Uiso  ? Fe
   Fe11       1.0     0.500000     0.166667     0.978510    Uiso  ? Fe
   Fe12       1.0    -0.000000     0.666667     0.978510    Uiso  ? Fe
   Fe13       1.0     0.000000     0.000000     0.145177    Uiso  ? Fe
   Fe14       1.0    -0.500000     0.500000     0.145177    Uiso  ? Fe
   Fe15       1.0    -0.000000     0.333333     0.021489    Uiso  ? Fe
   Fe16       1.0    -0.500000     0.833333     0.021489    Uiso  ? Fe
   Fe17       1.0     0.500000     0.166667     0.188156    Uiso  ? Fe
   Fe18       1.0    -0.000000     0.666667     0.188156    Uiso  ? Fe
   Fe19       1.0    -0.000000     0.333333     0.311844    Uiso  ? Fe
   Fe20       1.0    -0.500000     0.833333     0.311844    Uiso  ? Fe
   Fe21       1.0     0.500000     0.166667     0.478510    Uiso  ? Fe
   Fe22       1.0    -0.000000     0.666667     0.478510    Uiso  ? Fe
   Fe23       1.0     0.000000     0.000000     0.354823    Uiso  ? Fe
   Fe24       1.0    -0.500000     0.500000     0.354823    Uiso  ? Fe
   O1         1.0     0.347299     0.347300     0.750000    Uiso  ? O
   O2         1.0    -0.152701     0.847300     0.750000    Uiso  ? O
   O3         1.0     0.305401     0.000000     0.750000    Uiso  ? O
   O4         1.0    -0.194599     0.500000     0.750000    Uiso  ? O
   O5         1.0     0.652701     0.013966     0.583333    Uiso  ? O
   O6         1.0     0.152701     0.513966     0.583333    Uiso  ? O
   O7         1.0     0.194599     0.166667     0.583333    Uiso  ? O
   O8         1.0    -0.305401     0.666667     0.583333    Uiso  ? O
   O9         1.0     0.652701     0.319367     0.583333    Uiso  ? O
   O10        1.0     0.152701     0.819367     0.583333    Uiso  ? O
   O11        1.0    -0.152700     0.152700     0.750000    Uiso  ? O
   O12        1.0    -0.652700     0.652700     0.750000    Uiso  ? O
   O13        1.0     0.347300     0.013966     0.083333    Uiso  ? O
   O14        1.0    -0.152700     0.513966     0.083333    Uiso  ? O
   O15        1.0     0.805401     0.166667     0.083333    Uiso  ? O
   O16        1.0     0.305401     0.666667     0.083333    Uiso  ? O
   O17        1.0     0.152700     0.180633     0.916667    Uiso  ? O
   O18        1.0    -0.347300     0.680633     0.916667    Uiso  ? O
   O19        1.0    -0.305401     0.333333     0.916667    Uiso  ? O
   O20        1.0    -0.805401     0.833333     0.916667    Uiso  ? O
   O21        1.0     0.152700     0.486034     0.916667    Uiso  ? O
   O22        1.0    -0.347300     0.986034     0.916667    Uiso  ? O
   O23        1.0     0.347300     0.319367     0.083333    Uiso  ? O
   O24        1.0    -0.152700     0.819367     0.083333    Uiso  ? O
   O25        1.0    -0.152701     0.180633     0.416667    Uiso  ? O
   O26        1.0    -0.652701     0.680633     0.416667    Uiso  ? O
   O27        1.0     0.305401     0.333333     0.416667    Uiso  ? O
   O28        1.0    -0.194599     0.833333     0.416667    Uiso  ? O
   O29        1.0    -0.347300     0.347300     0.250000    Uiso  ? O
   O30        1.0    -0.847300     0.847300     0.250000    Uiso  ? O
   O31        1.0     0.694599     0.000000     0.250000    Uiso  ? O
   O32        1.0     0.194599     0.500000     0.250000    Uiso  ? O
   O33        1.0     0.152701     0.152700     0.250000    Uiso  ? O
   O34        1.0    -0.347299     0.652700     0.250000    Uiso  ? O
   O35        1.0    -0.152701     0.486034     0.416667    Uiso  ? O
   O36        1.0    -0.652701     0.986034     0.416667    Uiso  ? O
